20
SMILES: COC(=O)[C@@]1(C)COCO1
C  2.3931  -0.9461  -1.6359
O  1.5502  -0.7545  -0.4995
C  0.2648  -0.5012  -0.7788
O  -0.1778  -0.4425  -1.8886
C  -0.5445  -0.2772  0.502
C  -0.4251  -1.4526  1.4502
C  -0.179  1.0804  1.1065
O  -0.9205  1.9806  0.3115
C  -2.0412  1.2826  -0.2011
O  -1.8975  -0.0694  0.1724
H  3.3862  -1.1378  -1.2419
H  2.3912  -0.0537  -2.2599
H  2.0426  -1.7915  -2.2258
H  -1.0611  -1.2738  2.316
H  0.6069  -1.5769  1.7733
H  -0.7534  -2.3683  0.9592
H  -0.5008  1.1105  2.1534
H  0.8784  1.3273  1.0347
H  -2.0438  1.3904  -1.2874
H  -2.9687  1.6542  0.2395
